14969
  -OEChem-02022217352D

176185  0     1  0  0  0  0  0999 V2000
    9.5173    0.3451    0.0000 Cl  0  0  0  0  0  0  0  0  0  0  0  0
   12.8967    0.5349    0.0000 Cl  0  0  0  0  0  0  0  0  0  0  0  0
   12.1153   -5.1550    0.0000 O   0  0  0  0  0  0  0  0  0  0  0  0
   11.2493   -3.6550    0.0000 O   0  0  0  0  0  0  0  0  0  0  0  0
    9.5173   -1.6550    0.0000 O   0  0  0  0  0  0  0  0  0  0  0  0
   11.2493   -7.6550    0.0000 O   0  0  0  0  0  0  0  0  0  0  0  0
    9.5173   -4.6550    0.0000 O   0  0  0  0  0  0  0  0  0  0  0  0
   11.2493   -1.6550    0.0000 O   0  0  0  0  0  0  0  0  0  0  0  0
    7.7852   -3.6550    0.0000 O   0  0  0  0  0  0  0  0  0  0  0  0
    6.9192   -2.1550    0.0000 O   0  0  0  0  0  0  0  0  0  0  0  0
    9.5173   -0.6550    0.0000 O   0  0  0  0  0  0  0  0  0  0  0  0
   12.9814   -0.6550    0.0000 O   0  0  0  0  0  0  0  0  0  0  0  0
   12.1166    3.8450    0.0000 O   0  0  0  0  0  0  0  0  0  0  0  0
    9.5173    1.3450    0.0000 O   0  0  0  0  0  0  0  0  0  0  0  0
    5.0872    1.0862    0.0000 O   0  0  0  0  0  0  0  0  0  0  0  0
   17.0190    0.5258    0.0000 O   0  0  0  0  0  0  0  0  0  0  0  0
   15.5822    1.8498    0.0000 O   0  0  0  0  0  0  0  0  0  0  0  0
    6.9192    3.8450    0.0000 O   0  0  0  0  0  0  0  0  0  0  0  0
   18.1775    2.3450    0.0000 O   0  0  0  0  0  0  0  0  0  0  0  0
    4.1213    1.8274    0.0000 O   0  0  0  0  0  0  0  0  0  0  0  0
   13.8474    6.8450    0.0000 O   0  0  0  0  0  0  0  0  0  0  0  0
   10.0655    4.2592    0.0000 O   0  0  0  0  0  0  0  0  0  0  0  0
   14.7134    7.3450    0.0000 O   0  0  0  0  0  0  0  0  0  0  0  0
   14.8202    4.9436    0.0000 O   0  0  0  0  0  0  0  0  0  0  0  0
   14.6916    3.5352    0.0000 O   0  0  0  0  0  0  0  0  0  0  0  0
   18.1775    7.3450    0.0000 O   0  0  0  0  0  0  0  0  0  0  0  0
    9.8833   -7.0210    0.0000 N   0  0  0  0  0  0  0  0  0  0  0  0
   10.3833    2.8450    0.0000 N   0  0  0  0  0  0  0  0  0  0  0  0
   12.9814    2.3450    0.0000 N   0  0  0  0  0  0  0  0  0  0  0  0
    7.7852    2.3450    0.0000 N   0  0  0  0  0  0  0  0  0  0  0  0
   15.5795    2.8450    0.0000 N   0  0  0  0  0  0  0  0  0  0  0  0
    5.3461    3.0521    0.0000 N   0  0  0  0  0  0  0  0  0  0  0  0
   17.3115    3.8450    0.0000 N   0  0  0  0  0  0  0  0  0  0  0  0
    2.7071    3.2416    0.0000 N   0  0  0  0  0  0  0  0  0  0  0  0
    8.8407    5.4840    0.0000 N   0  0  0  0  0  0  0  0  0  0  0  0
   10.3833   -6.1550    0.0000 C   0  0  2  0  0  0  0  0  0  0  0  0
   11.2493   -6.6550    0.0000 C   0  0  1  0  0  0  0  0  0  0  0  0
   10.3833   -5.1550    0.0000 C   0  0  0  0  0  0  0  0  0  0  0  0
   11.2493   -4.6550    0.0000 C   0  0  1  0  0  0  0  0  0  0  0  0
   12.1153   -6.1550    0.0000 C   0  0  2  0  0  0  0  0  0  0  0  0
   10.3833   -3.1550    0.0000 C   0  0  2  0  0  0  0  0  0  0  0  0
    9.5173   -3.6550    0.0000 C   0  0  2  0  0  0  0  0  0  0  0  0
    9.3833   -6.1550    0.0000 C   0  0  0  0  0  0  0  0  0  0  0  0
    8.6512   -3.1550    0.0000 C   0  0  1  0  0  0  0  0  0  0  0  0
   10.3833   -2.1550    0.0000 C   0  0  1  0  0  0  0  0  0  0  0  0
    8.6512   -2.1550    0.0000 C   0  0  1  0  0  0  0  0  0  0  0  0
   12.9814   -6.6550    0.0000 C   0  0  0  0  0  0  0  0  0  0  0  0
    7.7852   -1.6550    0.0000 C   0  0  0  0  0  0  0  0  0  0  0  0
   11.2493   -0.6550    0.0000 C   0  0  0  0  0  0  0  0  0  0  0  0
   10.3833   -0.1550    0.0000 C   0  0  0  0  0  0  0  0  0  0  0  0
   12.1153   -0.1550    0.0000 C   0  0  0  0  0  0  0  0  0  0  0  0
   10.3833    0.8450    0.0000 C   0  0  0  0  0  0  0  0  0  0  0  0
   12.1153    0.8450    0.0000 C   0  0  0  0  0  0  0  0  0  0  0  0
   11.2493    1.3450    0.0000 C   0  0  0  0  0  0  0  0  0  0  0  0
   11.2493    2.3450    0.0000 C   0  0  2  0  0  0  0  0  0  0  0  0
   12.1153    2.8450    0.0000 C   0  0  0  0  0  0  0  0  0  0  0  0
    8.6512   -0.1550    0.0000 C   0  0  0  0  0  0  0  0  0  0  0  0
   13.8474   -0.1550    0.0000 C   0  0  0  0  0  0  0  0  0  0  0  0
    9.5173    2.3450    0.0000 C   0  0  0  0  0  0  0  0  0  0  0  0
   13.8474    2.8450    0.0000 C   0  0  2  0  0  0  0  0  0  0  0  0
    8.6512    2.8450    0.0000 C   0  0  2  0  0  0  0  0  0  0  0  0
    8.6512    0.8450    0.0000 C   0  0  0  0  0  0  0  0  0  0  0  0
    7.7852   -0.6550    0.0000 C   0  0  0  0  0  0  0  0  0  0  0  0
   13.8474    0.8450    0.0000 C   0  0  0  0  0  0  0  0  0  0  0  0
   14.7134   -0.6550    0.0000 C   0  0  0  0  0  0  0  0  0  0  0  0
    6.0532    1.3450    0.0000 C   0  0  1  0  0  0  0  0  0  0  0  0
    6.0532    2.3450    0.0000 C   0  0  2  0  0  0  0  0  0  0  0  0
    6.9192    0.8450    0.0000 C   0  0  0  0  0  0  0  0  0  0  0  0
   16.4455    1.3450    0.0000 C   0  0  2  0  0  0  0  0  0  0  0  0
   15.5794    0.8450    0.0000 C   0  0  0  0  0  0  0  0  0  0  0  0
   16.4455    2.3450    0.0000 C   0  0  1  0  0  0  0  0  0  0  0  0
    7.7852    1.3450    0.0000 C   0  0  0  0  0  0  0  0  0  0  0  0
    6.9192   -0.1550    0.0000 C   0  0  0  0  0  0  0  0  0  0  0  0
   14.7134    1.3450    0.0000 C   0  0  0  0  0  0  0  0  0  0  0  0
   15.5794   -0.1550    0.0000 C   0  0  0  0  0  0  0  0  0  0  0  0
   13.8474    3.8450    0.0000 C   0  0  0  0  0  0  0  0  0  0  0  0
   14.7134    2.3450    0.0000 C   0  0  0  0  0  0  0  0  0  0  0  0
    8.3924    3.8109    0.0000 C   0  0  0  0  0  0  0  0  0  0  0  0
    6.9192    2.8450    0.0000 C   0  0  0  0  0  0  0  0  0  0  0  0
    3.6730    3.5004    0.0000 C   0  0  2  0  0  0  0  0  0  0  0  0
   17.3115    2.8450    0.0000 C   0  0  0  0  0  0  0  0  0  0  0  0
    3.9318    4.4664    0.0000 C   0  0  0  0  0  0  0  0  0  0  0  0
   14.7134    4.3450    0.0000 C   0  0  0  0  0  0  0  0  0  0  0  0
    4.3801    2.7933    0.0000 C   0  0  0  0  0  0  0  0  0  0  0  0
    3.2247    5.1734    0.0000 C   0  0  0  0  0  0  0  0  0  0  0  0
   12.9814    4.3450    0.0000 C   0  0  0  0  0  0  0  0  0  0  0  0
   14.7134    5.3450    0.0000 C   0  0  0  0  0  0  0  0  0  0  0  0
   16.4455    4.3450    0.0000 C   0  0  1  0  0  0  0  0  0  0  0  0
   15.5795    5.8450    0.0000 C   0  0  0  0  0  0  0  0  0  0  0  0
   16.4455    5.3450    0.0000 C   0  0  0  0  0  0  0  0  0  0  0  0
    9.0995    4.5180    0.0000 C   0  0  0  0  0  0  0  0  0  0  0  0
   13.8474    5.8450    0.0000 C   0  0  0  0  0  0  0  0  0  0  0  0
   12.9814    5.3450    0.0000 C   0  0  0  0  0  0  0  0  0  0  0  0
    3.4836    6.1394    0.0000 C   0  0  0  0  0  0  0  0  0  0  0  0
    2.2588    4.9146    0.0000 C   0  0  0  0  0  0  0  0  0  0  0  0
   15.5795    6.8450    0.0000 C   0  0  0  0  0  0  0  0  0  0  0  0
   17.3115    5.8450    0.0000 C   0  0  0  0  0  0  0  0  0  0  0  0
   15.4600    4.1751    0.0000 C   0  0  0  0  0  0  0  0  0  0  0  0
    2.0000    3.9487    0.0000 C   0  0  0  0  0  0  0  0  0  0  0  0
   17.3115    6.8450    0.0000 C   0  0  0  0  0  0  0  0  0  0  0  0
   16.4455    7.3450    0.0000 C   0  0  0  0  0  0  0  0  0  0  0  0
   10.7124   -6.9650    0.0000 H   0  0  0  0  0  0  0  0  0  0  0  0
   10.1712   -4.5724    0.0000 H   0  0  0  0  0  0  0  0  0  0  0  0
    9.7727   -5.2626    0.0000 H   0  0  0  0  0  0  0  0  0  0  0  0
   10.7124   -4.3450    0.0000 H   0  0  0  0  0  0  0  0  0  0  0  0
   12.6523   -5.8450    0.0000 H   0  0  0  0  0  0  0  0  0  0  0  0
   10.3833   -3.7750    0.0000 H   0  0  0  0  0  0  0  0  0  0  0  0
    8.9803   -3.9650    0.0000 H   0  0  0  0  0  0  0  0  0  0  0  0
    9.3833   -5.5350    0.0000 H   0  0  0  0  0  0  0  0  0  0  0  0
    8.7633   -6.1550    0.0000 H   0  0  0  0  0  0  0  0  0  0  0  0
    9.3833   -6.7750    0.0000 H   0  0  0  0  0  0  0  0  0  0  0  0
    8.1143   -2.8450    0.0000 H   0  0  0  0  0  0  0  0  0  0  0  0
   10.9202   -2.4650    0.0000 H   0  0  0  0  0  0  0  0  0  0  0  0
    8.6512   -1.5350    0.0000 H   0  0  0  0  0  0  0  0  0  0  0  0
    9.2633   -7.0210    0.0000 H   0  0  0  0  0  0  0  0  0  0  0  0
   10.1933   -7.5580    0.0000 H   0  0  0  0  0  0  0  0  0  0  0  0
   12.6714   -7.1919    0.0000 H   0  0  0  0  0  0  0  0  0  0  0  0
   13.5183   -6.9650    0.0000 H   0  0  0  0  0  0  0  0  0  0  0  0
   13.2914   -6.1181    0.0000 H   0  0  0  0  0  0  0  0  0  0  0  0
   11.7862   -7.9650    0.0000 H   0  0  0  0  0  0  0  0  0  0  0  0
    8.1837   -1.1800    0.0000 H   0  0  0  0  0  0  0  0  0  0  0  0
    7.3867   -1.1800    0.0000 H   0  0  0  0  0  0  0  0  0  0  0  0
    8.9803   -4.9650    0.0000 H   0  0  0  0  0  0  0  0  0  0  0  0
    7.7852   -4.2750    0.0000 H   0  0  0  0  0  0  0  0  0  0  0  0
    6.3822   -1.8450    0.0000 H   0  0  0  0  0  0  0  0  0  0  0  0
    9.8463    1.1550    0.0000 H   0  0  0  0  0  0  0  0  0  0  0  0
   12.6523    1.1550    0.0000 H   0  0  0  0  0  0  0  0  0  0  0  0
   11.2493    3.1950    0.0000 H   0  0  0  0  0  0  0  0  0  0  0  0
   10.3833    3.4650    0.0000 H   0  0  0  0  0  0  0  0  0  0  0  0
   12.9814    1.7250    0.0000 H   0  0  0  0  0  0  0  0  0  0  0  0
   13.1831    3.3753    0.0000 H   0  0  0  0  0  0  0  0  0  0  0  0
    8.8117    3.4439    0.0000 H   0  0  0  0  0  0  0  0  0  0  0  0
    7.7852   -1.2750    0.0000 H   0  0  0  0  0  0  0  0  0  0  0  0
   14.7134   -1.2750    0.0000 H   0  0  0  0  0  0  0  0  0  0  0  0
    5.4543    2.5055    0.0000 H   0  0  0  0  0  0  0  0  0  0  0  0
    5.6148    0.9066    0.0000 H   0  0  0  0  0  0  0  0  0  0  0  0
   17.0443    1.1845    0.0000 H   0  0  0  0  0  0  0  0  0  0  0  0
   17.1816    1.9200    0.0000 H   0  0  0  0  0  0  0  0  0  0  0  0
    7.7852    1.9650    0.0000 H   0  0  0  0  0  0  0  0  0  0  0  0
    6.3822   -0.4650    0.0000 H   0  0  0  0  0  0  0  0  0  0  0  0
   14.7134    1.9650    0.0000 H   0  0  0  0  0  0  0  0  0  0  0  0
   16.1164   -0.4650    0.0000 H   0  0  0  0  0  0  0  0  0  0  0  0
    8.3375    2.0633    0.0000 H   0  0  0  0  0  0  0  0  0  0  0  0
    8.0368    4.3188    0.0000 H   0  0  0  0  0  0  0  0  0  0  0  0
    7.8305    3.5489    0.0000 H   0  0  0  0  0  0  0  0  0  0  0  0
   15.5795    3.4650    0.0000 H   0  0  0  0  0  0  0  0  0  0  0  0
    5.5065    3.6510    0.0000 H   0  0  0  0  0  0  0  0  0  0  0  0
    3.5126    2.9016    0.0000 H   0  0  0  0  0  0  0  0  0  0  0  0
    4.4938    4.2043    0.0000 H   0  0  0  0  0  0  0  0  0  0  0  0
    4.2875    4.9742    0.0000 H   0  0  0  0  0  0  0  0  0  0  0  0
   15.2504    4.0350    0.0000 H   0  0  0  0  0  0  0  0  0  0  0  0
    2.7863    5.6119    0.0000 H   0  0  0  0  0  0  0  0  0  0  0  0
   12.4444    4.0350    0.0000 H   0  0  0  0  0  0  0  0  0  0  0  0
   15.9690    3.9483    0.0000 H   0  0  0  0  0  0  0  0  0  0  0  0
   17.8484    4.1550    0.0000 H   0  0  0  0  0  0  0  0  0  0  0  0
    4.9268    0.4873    0.0000 H   0  0  0  0  0  0  0  0  0  0  0  0
   16.7570   -0.0361    0.0000 H   0  0  0  0  0  0  0  0  0  0  0  0
   12.4444    5.6550    0.0000 H   0  0  0  0  0  0  0  0  0  0  0  0
    2.5466    2.6427    0.0000 H   0  0  0  0  0  0  0  0  0  0  0  0
    4.0824    5.9789    0.0000 H   0  0  0  0  0  0  0  0  0  0  0  0
    3.6440    6.7382    0.0000 H   0  0  0  0  0  0  0  0  0  0  0  0
    2.8847    6.2998    0.0000 H   0  0  0  0  0  0  0  0  0  0  0  0
    2.0984    5.5135    0.0000 H   0  0  0  0  0  0  0  0  0  0  0  0
    1.6600    4.7542    0.0000 H   0  0  0  0  0  0  0  0  0  0  0  0
    2.4193    4.3158    0.0000 H   0  0  0  0  0  0  0  0  0  0  0  0
   17.8484    5.5350    0.0000 H   0  0  0  0  0  0  0  0  0  0  0  0
    2.4384    4.3871    0.0000 H   0  0  0  0  0  0  0  0  0  0  0  0
    1.5616    4.3871    0.0000 H   0  0  0  0  0  0  0  0  0  0  0  0
    1.5616    3.5103    0.0000 H   0  0  0  0  0  0  0  0  0  0  0  0
    9.2791    5.9224    0.0000 H   0  0  0  0  0  0  0  0  0  0  0  0
    8.2418    5.6444    0.0000 H   0  0  0  0  0  0  0  0  0  0  0  0
   16.4455    7.9650    0.0000 H   0  0  0  0  0  0  0  0  0  0  0  0
   13.3105    7.1550    0.0000 H   0  0  0  0  0  0  0  0  0  0  0  0
   14.7134    7.9650    0.0000 H   0  0  0  0  0  0  0  0  0  0  0  0
   14.2092    4.8383    0.0000 H   0  0  0  0  0  0  0  0  0  0  0  0
   18.1775    7.9650    0.0000 H   0  0  0  0  0  0  0  0  0  0  0  0
  1 62  1  0  0  0  0
  2 64  1  0  0  0  0
  3 39  1  0  0  0  0
  3 40  1  0  0  0  0
 39  4  1  6  0  0  0
 41  4  1  6  0  0  0
  5 45  1  0  0  0  0
  5 46  1  0  0  0  0
 37  6  1  1  0  0  0
  6120  1  0  0  0  0
 42  7  1  1  0  0  0
  7123  1  0  0  0  0
 45  8  1  1  0  0  0
  8 49  1  0  0  0  0
 44  9  1  6  0  0  0
  9124  1  0  0  0  0
 10 48  1  0  0  0  0
 10125  1  0  0  0  0
 11 50  1  0  0  0  0
 11 57  1  0  0  0  0
 12 51  1  0  0  0  0
 12 58  1  0  0  0  0
 13 56  2  0  0  0  0
 14 59  2  0  0  0  0
 66 15  1  1  0  0  0
 15156  1  0  0  0  0
 69 16  1  6  0  0  0
 16157  1  0  0  0  0
 17 77  2  0  0  0  0
 18 79  2  0  0  0  0
 19 81  2  0  0  0  0
 20 84  2  0  0  0  0
 21 92  1  0  0  0  0
 21173  1  0  0  0  0
 22 91  2  0  0  0  0
 23 96  1  0  0  0  0
 23174  1  0  0  0  0
 24 98  1  0  0  0  0
 24175  1  0  0  0  0
 25 98  2  0  0  0  0
 26100  1  0  0  0  0
 26176  1  0  0  0  0
 36 27  1  1  0  0  0
 27115  1  0  0  0  0
 27116  1  0  0  0  0
 28 55  1  0  0  0  0
 28 59  1  0  0  0  0
 28129  1  0  0  0  0
 29 56  1  0  0  0  0
 29 60  1  0  0  0  0
 29130  1  0  0  0  0
 30 61  1  0  0  0  0
 30 79  1  0  0  0  0
 30143  1  0  0  0  0
 31 71  1  0  0  0  0
 31 77  1  0  0  0  0
 31146  1  0  0  0  0
 67 32  1  1  0  0  0
 32 84  1  0  0  0  0
 32147  1  0  0  0  0
 33 81  1  0  0  0  0
 33 88  1  0  0  0  0
 33155  1  0  0  0  0
 80 34  1  6  0  0  0
 34 99  1  0  0  0  0
 34159  1  0  0  0  0
 35 91  1  0  0  0  0
 35170  1  0  0  0  0
 35171  1  0  0  0  0
 36 37  1  0  0  0  0
 36 38  1  0  0  0  0
 36 43  1  0  0  0  0
 37 40  1  0  0  0  0
 37102  1  0  0  0  0
 38 39  1  0  0  0  0
 38103  1  0  0  0  0
 38104  1  0  0  0  0
 39105  1  0  0  0  0
 40 47  1  1  0  0  0
 40106  1  0  0  0  0
 41 42  1  0  0  0  0
 41 45  1  0  0  0  0
 41107  1  0  0  0  0
 42 44  1  0  0  0  0
 42108  1  0  0  0  0
 43109  1  0  0  0  0
 43110  1  0  0  0  0
 43111  1  0  0  0  0
 44 46  1  0  0  0  0
 44112  1  0  0  0  0
 45113  1  0  0  0  0
 46 48  1  1  0  0  0
 46114  1  0  0  0  0
 47117  1  0  0  0  0
 47118  1  0  0  0  0
 47119  1  0  0  0  0
 48121  1  0  0  0  0
 48122  1  0  0  0  0
 49 50  1  0  0  0  0
 49 51  2  0  0  0  0
 50 52  2  0  0  0  0
 51 53  1  0  0  0  0
 52 54  1  0  0  0  0
 52126  1  0  0  0  0
 53 54  2  0  0  0  0
 53127  1  0  0  0  0
 54 55  1  0  0  0  0
 55 56  1  0  0  0  0
 55128  1  6  0  0  0
 57 62  2  0  0  0  0
 57 63  1  0  0  0  0
 58 64  2  0  0  0  0
 58 65  1  0  0  0  0
 59 61  1  0  0  0  0
 60 76  1  0  0  0  0
 60 77  1  0  0  0  0
 60131  1  1  0  0  0
 61 78  1  1  0  0  0
 61132  1  0  0  0  0
 62 72  1  0  0  0  0
 63 73  2  0  0  0  0
 63133  1  0  0  0  0
 64 74  1  0  0  0  0
 65 75  2  0  0  0  0
 65134  1  0  0  0  0
 66 67  1  0  0  0  0
 66 68  1  0  0  0  0
 66136  1  0  0  0  0
 67 79  1  0  0  0  0
 67135  1  0  0  0  0
 68 72  2  0  0  0  0
 68 73  1  0  0  0  0
 69 70  1  0  0  0  0
 69 71  1  0  0  0  0
 69137  1  0  0  0  0
 70 74  2  0  0  0  0
 70 75  1  0  0  0  0
 71 81  1  0  0  0  0
 71138  1  1  0  0  0
 72139  1  0  0  0  0
 73140  1  0  0  0  0
 74141  1  0  0  0  0
 75142  1  0  0  0  0
 76 83  2  0  0  0  0
 76 86  1  0  0  0  0
 78 91  1  0  0  0  0
 78144  1  0  0  0  0
 78145  1  0  0  0  0
 80 82  1  0  0  0  0
 80 84  1  0  0  0  0
 80148  1  0  0  0  0
 82 85  1  0  0  0  0
 82149  1  0  0  0  0
 82150  1  0  0  0  0
 83 87  1  0  0  0  0
 83151  1  0  0  0  0
 85 94  1  0  0  0  0
 85 95  1  0  0  0  0
 85152  1  0  0  0  0
 86 93  2  0  0  0  0
 86153  1  0  0  0  0
 87 89  1  0  0  0  0
 87 92  2  0  0  0  0
 88 90  1  0  0  0  0
 88 98  1  6  0  0  0
 88154  1  0  0  0  0
 89 90  2  0  0  0  0
 89 96  1  0  0  0  0
 90 97  1  0  0  0  0
 92 93  1  0  0  0  0
 93158  1  0  0  0  0
 94160  1  0  0  0  0
 94161  1  0  0  0  0
 94162  1  0  0  0  0
 95163  1  0  0  0  0
 95164  1  0  0  0  0
 95165  1  0  0  0  0
 96101  2  0  0  0  0
 97100  2  0  0  0  0
 97166  1  0  0  0  0
 99167  1  0  0  0  0
 99168  1  0  0  0  0
 99169  1  0  0  0  0
100101  1  0  0  0  0
101172  1  0  0  0  0
M  END
> <PUBCHEM_COMPOUND_CID>
14969

> <PUBCHEM_COMPOUND_CANONICALIZED>
1

> <PUBCHEM_CACTVS_COMPLEXITY>
2960

> <PUBCHEM_CACTVS_HBOND_ACCEPTOR>
26

> <PUBCHEM_CACTVS_HBOND_DONOR>
19

> <PUBCHEM_CACTVS_ROTATABLE_BOND>
13

> <PUBCHEM_CACTVS_SUBSKEYS>
AAADcfB//gAGAAAAAAAAAAAAAAAAAAAAAAA0aMGDAAAAAAABVAAAHgIQCAAADb7xmCcyDoLABgCIAiHSGACCCAAgJUAIiIGOj4gfdz+H9zu2eCrn9hWfuAf9/P/OoAADKAAYSABAAAZQADCQAAAAAAAAAA==

> <PUBCHEM_IUPAC_OPENEYE_NAME>
(1S,2R,18R,19R,22S,25R,28R,40S)-48-[(2S,3R,4S,5S,6R)-3-[(2S,4S,5S,6S)-4-amino-5-hydroxy-4,6-dimethyl-tetrahydropyran-2-yl]oxy-4,5-dihydroxy-6-(hydroxymethyl)tetrahydropyran-2-yl]oxy-22-(2-amino-2-oxo-ethyl)-5,15-dichloro-2,18,32,35,37-pentahydroxy-19-[[(2R)-4-methyl-2-(methylamino)pentanoyl]amino]-20,23,26,42,44-pentaoxo-7,13-dioxa-21,24,27,41,43-pentazaoctacyclo[26.14.2.23,6.214,17.18,12.129,33.010,25.034,39]pentaconta-3,5,8(48),9,11,14,16,29(45),30,32,34(39),35,37,46,49-pentadecaene-40-carboxylic acid

> <PUBCHEM_IUPAC_CAS_NAME>
(1S,2R,18R,19R,22S,25R,28R,40S)-48-[[(2S,3R,4S,5S,6R)-3-[[(2S,4S,5S,6S)-4-amino-5-hydroxy-4,6-dimethyl-2-oxanyl]oxy]-4,5-dihydroxy-6-(hydroxymethyl)-2-oxanyl]oxy]-22-(2-amino-2-oxoethyl)-5,15-dichloro-2,18,32,35,37-pentahydroxy-19-[[(2R)-4-methyl-2-(methylamino)-1-oxopentyl]amino]-20,23,26,42,44-pentaoxo-7,13-dioxa-21,24,27,41,43-pentazaoctacyclo[26.14.2.23,6.214,17.18,12.129,33.010,25.034,39]pentaconta-3,5,8(48),9,11,14,16,29(45),30,32,34(39),35,37,46,49-pentadecaene-40-carboxylic acid

> <PUBCHEM_IUPAC_NAME_MARKUP>
(1<I>S</I>,2<I>R</I>,18<I>R</I>,19<I>R</I>,22<I>S</I>,25<I>R</I>,28<I>R</I>,40<I>S</I>)-48-[(2<I>S</I>,3<I>R</I>,4<I>S</I>,5<I>S</I>,6<I>R</I>)-3-[(2<I>S</I>,4<I>S</I>,5<I>S</I>,6<I>S</I>)-4-amino-5-hydroxy-4,6-dimethyloxan-2-yl]oxy-4,5-dihydroxy-6-(hydroxymethyl)oxan-2-yl]oxy-22-(2-amino-2-oxoethyl)-5,15-dichloro-2,18,32,35,37-pentahydroxy-19-[[(2<I>R</I>)-4-methyl-2-(methylamino)pentanoyl]amino]-20,23,26,42,44-pentaoxo-7,13-dioxa-21,24,27,41,43-pentazaoctacyclo[26.14.2.2<SUP>3,6</SUP>.2<SUP>14,17</SUP>.1<SUP>8,12</SUP>.1<SUP>29,33</SUP>.0<SUP>10,25</SUP>.0<SUP>34,39</SUP>]pentaconta-3,5,8(48),9,11,14,16,29(45),30,32,34(39),35,37,46,49-pentadecaene-40-carboxylic acid

> <PUBCHEM_IUPAC_NAME>
(1S,2R,18R,19R,22S,25R,28R,40S)-48-[(2S,3R,4S,5S,6R)-3-[(2S,4S,5S,6S)-4-amino-5-hydroxy-4,6-dimethyloxan-2-yl]oxy-4,5-dihydroxy-6-(hydroxymethyl)oxan-2-yl]oxy-22-(2-amino-2-oxoethyl)-5,15-dichloro-2,18,32,35,37-pentahydroxy-19-[[(2R)-4-methyl-2-(methylamino)pentanoyl]amino]-20,23,26,42,44-pentaoxo-7,13-dioxa-21,24,27,41,43-pentazaoctacyclo[26.14.2.23,6.214,17.18,12.129,33.010,25.034,39]pentaconta-3,5,8(48),9,11,14,16,29(45),30,32,34(39),35,37,46,49-pentadecaene-40-carboxylic acid

> <PUBCHEM_IUPAC_SYSTEMATIC_NAME>
(1S,2R,18R,19R,22S,25R,28R,40S)-48-[(2S,3R,4S,5S,6R)-3-[(2S,4S,5S,6S)-4-azanyl-4,6-dimethyl-5-oxidanyl-oxan-2-yl]oxy-6-(hydroxymethyl)-4,5-bis(oxidanyl)oxan-2-yl]oxy-22-(2-azanyl-2-oxidanylidene-ethyl)-5,15-bis(chloranyl)-19-[[(2R)-4-methyl-2-(methylamino)pentanoyl]amino]-2,18,32,35,37-pentakis(oxidanyl)-20,23,26,42,44-pentakis(oxidanylidene)-7,13-dioxa-21,24,27,41,43-pentazaoctacyclo[26.14.2.23,6.214,17.18,12.129,33.010,25.034,39]pentaconta-3,5,8(48),9,11,14,16,29(45),30,32,34(39),35,37,46,49-pentadecaene-40-carboxylic acid

> <PUBCHEM_IUPAC_TRADITIONAL_NAME>
(1S,2R,18R,19R,22S,25R,28R,40S)-48-[(2S,3R,4S,5S,6R)-3-[(2S,4S,5S,6S)-4-amino-5-hydroxy-4,6-dimethyl-tetrahydropyran-2-yl]oxy-4,5-dihydroxy-6-methylol-tetrahydropyran-2-yl]oxy-22-(2-amino-2-keto-ethyl)-5,15-dichloro-2,18,32,35,37-pentahydroxy-20,23,26,42,44-pentaketo-19-[[(2R)-4-methyl-2-(methylamino)pentanoyl]amino]-7,13-dioxa-21,24,27,41,43-pentazaoctacyclo[26.14.2.23,6.214,17.18,12.129,33.010,25.034,39]pentaconta-3,5,8(48),9,11,14,16,29(45),30,32,34(39),35,37,46,49-pentadecaene-40-carboxylic acid

> <PUBCHEM_IUPAC_INCHI>
InChI=1S/C66H75Cl2N9O24/c1-23(2)12-34(71-5)58(88)76-49-51(83)26-7-10-38(32(67)14-26)97-40-16-28-17-41(55(40)101-65-56(54(86)53(85)42(22-78)99-65)100-44-21-66(4,70)57(87)24(3)96-44)98-39-11-8-27(15-33(39)68)52(84)50-63(93)75-48(64(94)95)31-18-29(79)19-37(81)45(31)30-13-25(6-9-36(30)80)46(60(90)77-50)74-61(91)47(28)73-59(89)35(20-43(69)82)72-62(49)92/h6-11,13-19,23-24,34-35,42,44,46-54,56-57,65,71,78-81,83-87H,12,20-22,70H2,1-5H3,(H2,69,82)(H,72,92)(H,73,89)(H,74,91)(H,75,93)(H,76,88)(H,77,90)(H,94,95)/t24-,34+,35-,42+,44-,46+,47+,48-,49+,50-,51+,52+,53+,54-,56+,57+,65-,66-/m0/s1

> <PUBCHEM_IUPAC_INCHIKEY>
MYPYJXKWCTUITO-LYRMYLQWSA-N

> <PUBCHEM_XLOGP3_AA>
-2.6

> <PUBCHEM_EXACT_MASS>
1447.4301997

> <PUBCHEM_MOLECULAR_FORMULA>
C66H75Cl2N9O24

> <PUBCHEM_MOLECULAR_WEIGHT>
1449.2

> <PUBCHEM_OPENEYE_CAN_SMILES>
CC1C(C(CC(O1)OC2C(C(C(OC2OC3=C4C=C5C=C3OC6=C(C=C(C=C6)C(C(C(=O)NC(C(=O)NC5C(=O)NC7C8=CC(=C(C=C8)O)C9=C(C=C(C=C9O)O)C(NC(=O)C(C(C1=CC(=C(O4)C=C1)Cl)O)NC7=O)C(=O)O)CC(=O)N)NC(=O)C(CC(C)C)NC)O)Cl)CO)O)O)(C)N)O

> <PUBCHEM_OPENEYE_ISO_SMILES>
C[C@H]1[C@H]([C@@](C[C@@H](O1)O[C@@H]2[C@H]([C@@H]([C@H](O[C@H]2OC3=C4C=C5C=C3OC6=C(C=C(C=C6)[C@H]([C@H](C(=O)N[C@H](C(=O)N[C@H]5C(=O)N[C@@H]7C8=CC(=C(C=C8)O)C9=C(C=C(C=C9O)O)[C@H](NC(=O)[C@H]([C@@H](C1=CC(=C(O4)C=C1)Cl)O)NC7=O)C(=O)O)CC(=O)N)NC(=O)[C@@H](CC(C)C)NC)O)Cl)CO)O)O)(C)N)O

> <PUBCHEM_CACTVS_TPSA>
531

> <PUBCHEM_MONOISOTOPIC_WEIGHT>
1447.4301997

> <PUBCHEM_TOTAL_CHARGE>
0

> <PUBCHEM_HEAVY_ATOM_COUNT>
101

> <PUBCHEM_ATOM_DEF_STEREO_COUNT>
18

> <PUBCHEM_ATOM_UDEF_STEREO_COUNT>
0

> <PUBCHEM_BOND_DEF_STEREO_COUNT>
0

> <PUBCHEM_BOND_UDEF_STEREO_COUNT>
0

> <PUBCHEM_ISOTOPIC_ATOM_COUNT>
0

> <PUBCHEM_COMPONENT_COUNT>
1

> <PUBCHEM_CACTVS_TAUTO_COUNT>
-1

> <PUBCHEM_COORDINATE_TYPE>
1
5
255

> <PUBCHEM_BONDANNOTATIONS>
100  101  8
66  15  5
69  16  6
36  27  5
67  32  5
80  34  6
39  4  6
41  4  6
40  47  5
46  48  5
49  50  8
49  51  8
50  52  8
51  53  8
52  54  8
53  54  8
55  128  6
57  62  8
57  63  8
58  64  8
58  65  8
37  6  5
60  131  5
61  78  5
62  72  8
63  73  8
64  74  8
65  75  8
68  72  8
68  73  8
42  7  5
70  74  8
70  75  8
71  138  5
76  83  8
76  86  8
45  8  5
83  87  8
86  93  8
87  92  8
88  98  6
89  90  8
89  96  8
44  9  6
90  97  8
92  93  8
96  101  8
97  100  8

$$$$
