   13
scf done:  -232.344141
 C     1.126468    -0.456892    -0.142560
 O     0.000002    -1.169225     0.335195
 C    -1.126468    -0.456897    -0.142560
 C    -0.774561     1.031293     0.033536
 C     0.774553     1.031297     0.033536
 H     1.997646    -0.781028     0.430110
 H     1.290587    -0.695283    -1.205537
 H    -1.290586    -0.695289    -1.205537
 H    -1.997644    -0.781038     0.430110
 H    -1.195520     1.645650    -0.766743
 H    -1.162052     1.407728     0.983599
 H     1.195509     1.645656    -0.766744
 H     1.162043     1.407734     0.983599
